Circuit: * C:\Users\shane\Documents\GitHub\OpenHydro\0-10v_PCB\ltspice\pwm_test.asc

Limiting rise time of source v1 to 2.5e-005
Limiting fall time of source v1 to 2.5e-005
.OP point found by inspection.

Date: Sat Dec 12 13:13:10 2020
Total elapsed time: 0.239 seconds.

tnom = 27
temp = 27
method = modified trap
totiter = 82040
traniter = 82040
tranpoints = 41021
accept = 34018
rejected = 7003
matrix size = 3
fillins = 0
solver = Normal
Matrix Compiler1:       3 opcodes  0.0/[0.0]/0.0
Matrix Compiler2: 175 bytes object code size  0.0/0.0/[0.0]

